#!MC 1000
$!VarSet |LFDSFN1| = '"Plume_domain_quad.tec"'
$!VarSet |LFDSVL1| = '"X" "Y" "Z" "PRESSURE1" "TEMPERATURE1" "WATER1" "VELOCITY_X1" "VELOCITY_Y1" "VELOCITY_Z1" "DENSITY"'
$!SETSTYLEBASE FACTORY
$!PAPER 
  BACKGROUNDCOLOR = WHITE
  ISTRANSPARENT = YES
  ORIENTPORTRAIT = NO
  SHOWGRID = YES
  SHOWRULER = YES
  SHOWPAPER = YES
  PAPERSIZE = LETTER
  PAPERSIZEINFO
    {
    LETTER
      {
      WIDTH = 8.5
      HEIGHT = 11
      LEFTHARDCLIPOFFSET = 0.125
      RIGHTHARDCLIPOFFSET = 0.125
      TOPHARDCLIPOFFSET = 0.125
      BOTTOMHARDCLIPOFFSET = 0.125
      }
    }
  RULERSPACING = ONEINCH
  PAPERGRIDSPACING = HALFINCH
  REGIONINWORKAREA
    {
    X1 = 2.631
    Y1 = 0.5676
    X2 = 9.099
    Y2 = 5.876
    }
$!COLORMAP 
  CONTOURCOLORMAP = MODERN
$!COLORMAPCONTROL RESETTOFACTORY
### Frame Number 1 ###
$!FRAMELAYOUT 
  SHOWBORDER = NO
  ISTRANSPARENT = YES
  HEADERCOLOR = BLUE
  XYPOS
    {
    X = 2.7089
    Y = 0.56764
    }
  WIDTH = 6.3875
  HEIGHT = 0.29709
$!FRAMENAME  = 'Frame 008' 
$!SKETCHAXIS 
  DEPXTOYRATIO = 1
$!SKETCHAXIS 
  XDETAIL
    {
    RANGEMIN = 0
    RANGEMAX = 22.502478988044498
    GRSPACING = 5
    }
$!SKETCHAXIS 
  YDETAIL
    {
    RANGEMIN = 0
    RANGEMAX = 1.0466162790697675
    GRSPACING = 0.2
    }
$!ATTACHTEXT 
  ANCHORPOS
    {
    X = 0.818713450292
    Y = 26.3157894737
    }
  TEXT = '     Experiment            SEAWAT                SUTRA            OpenGeoSys' 
### Frame Number 2 ###
$!CREATENEWFRAME 
$!READDATASET  '|LFDSFN1|' 
  INITIALPLOTTYPE = CARTESIAN2D
  INCLUDETEXT = NO
  INCLUDEGEOM = NO
  VARLOADMODE = BYNAME
  VARNAMELIST = '|LFDSVL1|' 
$!REMOVEVAR |LFDSVL1|
$!REMOVEVAR |LFDSFN1|
$!FRAMELAYOUT 
  SHOWBORDER = NO
  ISTRANSPARENT = YES
  HEADERCOLOR = RED
  XYPOS
    {
    X = 4.7025
    Y = 5.5009
    }
  WIDTH = 2.5409
  HEIGHT = 0.37527
$!PLOTTYPE  = CARTESIAN2D
$!FRAMENAME  = 'Frame 007' 
$!ACTIVEFIELDZONES  =  [1]
$!GLOBALRGB 
  RANGEMIN = 0
  RANGEMAX = 1
$!GLOBALCONTOUR  1
  VAR = 6
  DEFNUMLEVELS = 10
  LEGEND
    {
    SHOW = YES
    SHOWHEADER = NO
    XYPOS
      {
      X = 100
      Y = 100
      }
    ISVERTICAL = NO
    OVERLAYBARGRID = NO
    NUMBERTEXTSHAPE
      {
      HEIGHT = 32.5
      }
    BOX
      {
      BOXTYPE = FILLED
      }
    LABELINCREMENT = 290.1
    }
  COLORCUTOFF
    {
    RANGEMIN = 0.068473495543
    RANGEMAX = 0.738587670028
    }
  COLORMAPFILTER
    {
    COLORMAPDISTRIBUTION = CONTINUOUS
    CONTINUOUSCOLOR
      {
      CMIN = 0.1
      CMAX = 1
      }
    }
$!CONTOURLEVELS NEW
  CONTOURGROUP = 1
  RAWDATA
10
0.1
0.2
0.3
0.4
0.5
0.6
0.7
0.8
0.9
1
$!GLOBALCONTOUR  2
  LEGEND
    {
    XYPOS
      {
      X = 95
      }
    }
  COLORMAPFILTER
    {
    CONTINUOUSCOLOR
      {
      CMIN = 0
      CMAX = 1
      }
    }
$!GLOBALCONTOUR  3
  LEGEND
    {
    XYPOS
      {
      X = 95
      }
    }
  COLORMAPFILTER
    {
    CONTINUOUSCOLOR
      {
      CMIN = 0
      CMAX = 1
      }
    }
$!GLOBALCONTOUR  4
  LEGEND
    {
    XYPOS
      {
      X = 95
      }
    }
  COLORMAPFILTER
    {
    CONTINUOUSCOLOR
      {
      CMIN = 0
      CMAX = 1
      }
    }
$!GLOBALSCATTER 
  LEGEND
    {
    XYPOS
      {
      X = 95
      }
    }
  REFSCATSYMBOL
    {
    COLOR = RED
    FILLCOLOR = RED
    }
$!FIELD  [1]
  MESH
    {
    COLOR = RED
    }
  CONTOUR
    {
    CONTOURTYPE = FLOOD
    COLOR = BLACK
    USELIGHTINGEFFECT = YES
    }
  VECTOR
    {
    COLOR = RED
    }
  SCATTER
    {
    COLOR = RED
    }
  SHADE
    {
    COLOR = WHITE
    }
  BOUNDARY
    {
    SHOW = YES
    COLOR = RED
    }
  POINTS
    {
    POINTSTOPLOT = SURFACENODES
    }
  SURFACES
    {
    SURFACESTOPLOT = KPLANES
    }
  VOLUMEMODE
    {
    VOLUMEOBJECTSTOPLOT
      {
      SHOWISOSURFACES = NO
      SHOWSLICES = NO
      SHOWSTREAMTRACES = NO
      }
    }
$!FIELD  [2]
  MESH
    {
    COLOR = GREEN
    }
  CONTOUR
    {
    COLOR = GREEN
    }
  VECTOR
    {
    COLOR = GREEN
    }
  SCATTER
    {
    COLOR = GREEN
    }
  SHADE
    {
    COLOR = WHITE
    }
  BOUNDARY
    {
    SHOW = YES
    COLOR = GREEN
    }
  POINTS
    {
    POINTSTOPLOT = SURFACENODES
    }
  SURFACES
    {
    SURFACESTOPLOT = KPLANES
    }
  VOLUMEMODE
    {
    VOLUMEOBJECTSTOPLOT
      {
      SHOWISOSURFACES = NO
      SHOWSLICES = NO
      SHOWSTREAMTRACES = NO
      }
    }
$!FIELD  [3]
  MESH
    {
    COLOR = BLUE
    }
  CONTOUR
    {
    COLOR = BLUE
    }
  VECTOR
    {
    COLOR = BLUE
    }
  SCATTER
    {
    COLOR = BLUE
    }
  SHADE
    {
    COLOR = WHITE
    }
  BOUNDARY
    {
    SHOW = YES
    COLOR = BLUE
    }
  POINTS
    {
    POINTSTOPLOT = SURFACENODES
    }
  SURFACES
    {
    SURFACESTOPLOT = KPLANES
    }
  VOLUMEMODE
    {
    VOLUMEOBJECTSTOPLOT
      {
      SHOWISOSURFACES = NO
      SHOWSLICES = NO
      SHOWSTREAMTRACES = NO
      }
    }
$!FIELD  [4]
  MESH
    {
    COLOR = CYAN
    }
  CONTOUR
    {
    COLOR = CYAN
    }
  VECTOR
    {
    COLOR = CYAN
    }
  SCATTER
    {
    COLOR = CYAN
    }
  SHADE
    {
    COLOR = WHITE
    }
  BOUNDARY
    {
    SHOW = YES
    COLOR = CYAN
    }
  POINTS
    {
    POINTSTOPLOT = SURFACENODES
    }
  SURFACES
    {
    SURFACESTOPLOT = KPLANES
    }
  VOLUMEMODE
    {
    VOLUMEOBJECTSTOPLOT
      {
      SHOWISOSURFACES = NO
      SHOWSLICES = NO
      SHOWSTREAMTRACES = NO
      }
    }
$!FIELD  [5]
  MESH
    {
    COLOR = YELLOW
    }
  CONTOUR
    {
    COLOR = YELLOW
    }
  VECTOR
    {
    COLOR = YELLOW
    }
  SCATTER
    {
    COLOR = YELLOW
    }
  SHADE
    {
    COLOR = WHITE
    }
  BOUNDARY
    {
    SHOW = YES
    COLOR = YELLOW
    }
  POINTS
    {
    POINTSTOPLOT = SURFACENODES
    }
  SURFACES
    {
    SURFACESTOPLOT = KPLANES
    }
  VOLUMEMODE
    {
    VOLUMEOBJECTSTOPLOT
      {
      SHOWISOSURFACES = NO
      SHOWSLICES = NO
      SHOWSTREAMTRACES = NO
      }
    }
$!FIELD  [6]
  MESH
    {
    COLOR = PURPLE
    }
  CONTOUR
    {
    COLOR = PURPLE
    }
  VECTOR
    {
    COLOR = PURPLE
    }
  SCATTER
    {
    COLOR = PURPLE
    }
  SHADE
    {
    COLOR = WHITE
    }
  BOUNDARY
    {
    SHOW = YES
    COLOR = PURPLE
    }
  POINTS
    {
    POINTSTOPLOT = SURFACENODES
    }
  SURFACES
    {
    SURFACESTOPLOT = KPLANES
    }
  VOLUMEMODE
    {
    VOLUMEOBJECTSTOPLOT
      {
      SHOWISOSURFACES = NO
      SHOWSLICES = NO
      SHOWSTREAMTRACES = NO
      }
    }
$!TWODAXIS 
  XDETAIL
    {
    VARNUM = 1
    }
  YDETAIL
    {
    VARNUM = 3
    }
$!VIEW FIT
$!TWODAXIS 
  AXISMODE = INDEPENDENT
  DEPXTOYRATIO = 1
  VIEWPORTPOSITION
    {
    X1 = 0
    Y1 = 2
    X2 = 98
    Y2 = 98
    }
  VIEWPORTTOPSNAPTARGET = 98
$!TWODAXIS 
  XDETAIL
    {
    RANGEMIN = 0
    RANGEMAX = 0.53000000000000003
    AUTOGRID = NO
    GRSPACING = 0.05
    TICKS
      {
      SHOWONGRIDBORDERMAX = YES
      TICKDIRECTION = OUT
      LINETHICKNESS = 2
      MINORLENGTH = 0
      MINORLINETHICKNESS = 0.02
      }
    TICKLABEL
      {
      SHOWONAXISLINE = NO
      }
    TITLE
      {
      SHOWONAXISLINE = NO
      }
    }
$!TWODAXIS 
  YDETAIL
    {
    RANGEMIN = -0.28999999999999998
    RANGEMAX = 0
    AUTOGRID = NO
    GRSPACING = 0.05
    TICKS
      {
      SHOWONGRIDBORDERMAX = YES
      TICKDIRECTION = OUT
      LINETHICKNESS = 2
      MINORLENGTH = 0
      MINORLINETHICKNESS = 0.02
      }
    TICKLABEL
      {
      SHOWONAXISLINE = NO
      }
    TITLE
      {
      SHOWONAXISLINE = NO
      }
    }
$!GLOBALISOSURFACE 
  ISOVALUE1 = 0.068473495543
  ISOVALUE2 = 0.403530582786
  ISOVALUE3 = 0.738587670028
  MARCHINGCUBEALGORITHM = CLASSICPLUS
$!GLOBALSLICE 
  BOUNDARY
    {
    SHOW = NO
    }
$!FIELDLAYERS 
  SHOWMESH = NO
  SHOWCONTOUR = YES
  SHOWBOUNDARY = NO
### Frame Number 3 ###
$!CREATENEWFRAME 
$!FRAMELAYOUT 
  SHOWBORDER = NO
  ISTRANSPARENT = YES
  HEADERCOLOR = GREEN
  XYPOS
    {
    X = 2.6307
    Y = 0.86473
    }
  WIDTH = 4.8758
  HEIGHT = 4.64
$!FRAMENAME  = 'Frame 001' 
$!SKETCHAXIS 
  DEPXTOYRATIO = 1
$!SKETCHAXIS 
  XDETAIL
    {
    RANGEMIN = 0
    RANGEMAX = 1.2973689810193596
    GRSPACING = 0.2
    }
$!SKETCHAXIS 
  YDETAIL
    {
    RANGEMIN = 0
    RANGEMAX = 1.234626537579439
    GRSPACING = 0.1
    }
$!ATTACHGEOM 
  GEOMTYPE = GEOMIMAGE
  POSITIONCOORDSYS = FRAME
  ANCHORPOS
    {
    X = 0.481039941231
    Y = 0.399686520376
    }
  IMAGEFILENAME = 'Plume_exp.bmp' 
  PIXELASPECTRATIO = 1
  RAWDATA
99.6469676495 100.00000257 
### Frame Number 4 ###
$!CREATENEWFRAME 
$!ATTACHDATASET 
  FRAME = 2
$!FRAMELAYOUT 
  SHOWBORDER = NO
  ISTRANSPARENT = YES
  HEADERCOLOR = RED
  XYPOS
    {
    X = 7.5093
    Y = 0.90382
    }
  WIDTH = 1.59
  HEIGHT = 0.87
$!PLOTTYPE  = CARTESIAN2D
$!FRAMENAME  = 'Frame 006' 
$!ACTIVEFIELDZONES  =  [1]
$!GLOBALRGB 
  RANGEMIN = 0
  RANGEMAX = 1
$!GLOBALCONTOUR  1
  VAR = 6
  DEFNUMLEVELS = 11
  LEGEND
    {
    XYPOS
      {
      X = 95
      }
    LABELINCREMENT = 290.1
    }
  COLORCUTOFF
    {
    RANGEMIN = 0.0522761568425
    RANGEMAX = 0.156828470528
    }
  COLORMAPFILTER
    {
    CONTINUOUSCOLOR
      {
      CMIN = 0.001
      CMAX = 0.025
      }
    }
$!CONTOURLEVELS NEW
  CONTOURGROUP = 1
  RAWDATA
11
0.0860681997535
0.177461379778
0.268854559803
0.360247739827
0.451640919852
0.543034099877
0.634427279901
0.725820459926
0.817213639951
0.908606819975
1
$!GLOBALCONTOUR  2
  LEGEND
    {
    XYPOS
      {
      X = 95
      }
    }
  COLORMAPFILTER
    {
    CONTINUOUSCOLOR
      {
      CMIN = 0
      CMAX = 1
      }
    }
$!GLOBALCONTOUR  3
  LEGEND
    {
    XYPOS
      {
      X = 95
      }
    }
  COLORMAPFILTER
    {
    CONTINUOUSCOLOR
      {
      CMIN = 0
      CMAX = 1
      }
    }
$!GLOBALCONTOUR  4
  LEGEND
    {
    XYPOS
      {
      X = 95
      }
    }
  COLORMAPFILTER
    {
    CONTINUOUSCOLOR
      {
      CMIN = 0
      CMAX = 1
      }
    }
$!GLOBALSCATTER 
  LEGEND
    {
    XYPOS
      {
      X = 95
      }
    }
  REFSCATSYMBOL
    {
    COLOR = RED
    FILLCOLOR = RED
    }
$!FIELD  [1]
  MESH
    {
    COLOR = RED
    }
  CONTOUR
    {
    CONTOURTYPE = FLOOD
    COLOR = BLACK
    USELIGHTINGEFFECT = YES
    }
  VECTOR
    {
    COLOR = RED
    }
  SCATTER
    {
    COLOR = RED
    }
  SHADE
    {
    COLOR = WHITE
    }
  BOUNDARY
    {
    SHOW = YES
    COLOR = RED
    }
  POINTS
    {
    POINTSTOPLOT = SURFACENODES
    }
  SURFACES
    {
    SURFACESTOPLOT = KPLANES
    }
  VOLUMEMODE
    {
    VOLUMEOBJECTSTOPLOT
      {
      SHOWISOSURFACES = NO
      SHOWSLICES = NO
      SHOWSTREAMTRACES = NO
      }
    }
$!FIELD  [2]
  MESH
    {
    COLOR = GREEN
    }
  CONTOUR
    {
    CONTOURTYPE = FLOOD
    COLOR = GREEN
    }
  VECTOR
    {
    COLOR = GREEN
    }
  SCATTER
    {
    COLOR = GREEN
    }
  SHADE
    {
    COLOR = WHITE
    }
  BOUNDARY
    {
    SHOW = YES
    COLOR = GREEN
    }
  POINTS
    {
    POINTSTOPLOT = SURFACENODES
    }
  SURFACES
    {
    SURFACESTOPLOT = KPLANES
    }
  VOLUMEMODE
    {
    VOLUMEOBJECTSTOPLOT
      {
      SHOWISOSURFACES = NO
      SHOWSLICES = NO
      SHOWSTREAMTRACES = NO
      }
    }
$!FIELD  [3]
  MESH
    {
    COLOR = BLUE
    }
  CONTOUR
    {
    COLOR = BLUE
    }
  VECTOR
    {
    COLOR = BLUE
    }
  SCATTER
    {
    COLOR = BLUE
    }
  SHADE
    {
    COLOR = WHITE
    }
  BOUNDARY
    {
    SHOW = YES
    COLOR = BLUE
    }
  POINTS
    {
    POINTSTOPLOT = SURFACENODES
    }
  SURFACES
    {
    SURFACESTOPLOT = KPLANES
    }
  VOLUMEMODE
    {
    VOLUMEOBJECTSTOPLOT
      {
      SHOWISOSURFACES = NO
      SHOWSLICES = NO
      SHOWSTREAMTRACES = NO
      }
    }
$!FIELD  [4]
  MESH
    {
    COLOR = CYAN
    }
  CONTOUR
    {
    COLOR = CYAN
    }
  VECTOR
    {
    COLOR = CYAN
    }
  SCATTER
    {
    COLOR = CYAN
    }
  SHADE
    {
    COLOR = WHITE
    }
  BOUNDARY
    {
    SHOW = YES
    COLOR = CYAN
    }
  POINTS
    {
    POINTSTOPLOT = SURFACENODES
    }
  SURFACES
    {
    SURFACESTOPLOT = KPLANES
    }
  VOLUMEMODE
    {
    VOLUMEOBJECTSTOPLOT
      {
      SHOWISOSURFACES = NO
      SHOWSLICES = NO
      SHOWSTREAMTRACES = NO
      }
    }
$!FIELD  [5]
  MESH
    {
    COLOR = YELLOW
    }
  CONTOUR
    {
    COLOR = YELLOW
    }
  VECTOR
    {
    COLOR = YELLOW
    }
  SCATTER
    {
    COLOR = YELLOW
    }
  SHADE
    {
    COLOR = WHITE
    }
  BOUNDARY
    {
    SHOW = YES
    COLOR = YELLOW
    }
  POINTS
    {
    POINTSTOPLOT = SURFACENODES
    }
  SURFACES
    {
    SURFACESTOPLOT = KPLANES
    }
  VOLUMEMODE
    {
    VOLUMEOBJECTSTOPLOT
      {
      SHOWISOSURFACES = NO
      SHOWSLICES = NO
      SHOWSTREAMTRACES = NO
      }
    }
$!FIELD  [6]
  MESH
    {
    COLOR = PURPLE
    }
  CONTOUR
    {
    COLOR = PURPLE
    }
  VECTOR
    {
    COLOR = PURPLE
    }
  SCATTER
    {
    COLOR = PURPLE
    }
  SHADE
    {
    COLOR = WHITE
    }
  BOUNDARY
    {
    SHOW = YES
    COLOR = PURPLE
    }
  POINTS
    {
    POINTSTOPLOT = SURFACENODES
    }
  SURFACES
    {
    SURFACESTOPLOT = KPLANES
    }
  VOLUMEMODE
    {
    VOLUMEOBJECTSTOPLOT
      {
      SHOWISOSURFACES = NO
      SHOWSLICES = NO
      SHOWSTREAMTRACES = NO
      }
    }
$!TWODAXIS 
  XDETAIL
    {
    VARNUM = 1
    }
  YDETAIL
    {
    VARNUM = 3
    }
$!VIEW FIT
$!TWODAXIS 
  AXISMODE = INDEPENDENT
  DEPXTOYRATIO = 1
  VIEWPORTPOSITION
    {
    X1 = 2
    Y1 = 2
    X2 = 98
    Y2 = 98
    }
  VIEWPORTTOPSNAPTARGET = 98
$!TWODAXIS 
  XDETAIL
    {
    RANGEMIN = 0
    RANGEMAX = 0.53000000000000003
    AUTOGRID = NO
    GRSPACING = 0.05
    TICKS
      {
      SHOWONGRIDBORDERMAX = YES
      TICKDIRECTION = OUT
      LINETHICKNESS = 2
      MINORLENGTH = 0
      MINORLINETHICKNESS = 0.02
      }
    TICKLABEL
      {
      SHOWONAXISLINE = NO
      }
    TITLE
      {
      SHOWONAXISLINE = NO
      }
    }
$!TWODAXIS 
  YDETAIL
    {
    RANGEMIN = -0.28999999999999998
    RANGEMAX = 0
    AUTOGRID = NO
    GRSPACING = 0.05
    TICKS
      {
      SHOWONGRIDBORDERMAX = YES
      TICKDIRECTION = OUT
      LINETHICKNESS = 2
      MINORLENGTH = 0
      MINORLINETHICKNESS = 0.02
      }
    TICKLABEL
      {
      SHOWONAXISLINE = NO
      }
    TITLE
      {
      SHOWONAXISLINE = NO
      }
    }
$!GLOBALISOSURFACE 
  ISOVALUE1 = 0.0522761568425
  ISOVALUE2 = 0.104552313685
  ISOVALUE3 = 0.156828470528
  MARCHINGCUBEALGORITHM = CLASSICPLUS
$!GLOBALSLICE 
  BOUNDARY
    {
    SHOW = NO
    }
$!FIELDLAYERS 
  SHOWMESH = NO
  SHOWCONTOUR = YES
  SHOWBOUNDARY = NO
### Frame Number 5 ###
$!CREATENEWFRAME 
$!FRAMELAYOUT 
  SHOWBORDER = NO
  ISTRANSPARENT = YES
  HEADERCOLOR = RED
  XYPOS
    {
    X = 7.5015
    Y = 3.6715
    }
  WIDTH = 1.59
  HEIGHT = 0.87
$!PLOTTYPE  = CARTESIAN2D
$!FRAMENAME  = 'Frame 004' 
$!ACTIVEFIELDZONES  =  [4]
$!GLOBALRGB 
  RANGEMIN = 0
  RANGEMAX = 1
$!GLOBALCONTOUR  1
  VAR = 6
  DEFNUMLEVELS = 10
  LEGEND
    {
    XYPOS
      {
      X = 95
      }
    LABELINCREMENT = 290.1
    }
  COLORCUTOFF
    {
    RANGEMIN = 0.274145120697
    RANGEMAX = 0.823633986816
    }
  COLORMAPFILTER
    {
    COLORMAPDISTRIBUTION = CONTINUOUS
    CONTINUOUSCOLOR
      {
      CMIN = -0
      CMAX = 1
      }
    }
$!CONTOURLEVELS NEW
  CONTOURGROUP = 1
  RAWDATA
10
0.0621351711452
0.140413044021
0.218690916896
0.296968789771
0.375246662647
0.453524535522
0.531802408397
0.610080281273
0.688358154148
0.766636027023
$!GLOBALCONTOUR  2
  LEGEND
    {
    XYPOS
      {
      X = 95
      }
    }
  COLORMAPFILTER
    {
    CONTINUOUSCOLOR
      {
      CMIN = 0
      CMAX = 1
      }
    }
$!GLOBALCONTOUR  3
  LEGEND
    {
    XYPOS
      {
      X = 95
      }
    }
  COLORMAPFILTER
    {
    CONTINUOUSCOLOR
      {
      CMIN = 0
      CMAX = 1
      }
    }
$!GLOBALCONTOUR  4
  LEGEND
    {
    XYPOS
      {
      X = 95
      }
    }
  COLORMAPFILTER
    {
    CONTINUOUSCOLOR
      {
      CMIN = 0
      CMAX = 1
      }
    }
$!GLOBALSCATTER 
  LEGEND
    {
    XYPOS
      {
      X = 95
      }
    }
  REFSCATSYMBOL
    {
    COLOR = RED
    FILLCOLOR = RED
    }
$!FIELD  [1]
  MESH
    {
    COLOR = RED
    }
  CONTOUR
    {
    CONTOURTYPE = FLOOD
    COLOR = BLACK
    USELIGHTINGEFFECT = YES
    }
  VECTOR
    {
    COLOR = RED
    }
  SCATTER
    {
    COLOR = RED
    }
  SHADE
    {
    COLOR = WHITE
    }
  BOUNDARY
    {
    SHOW = YES
    COLOR = RED
    }
  POINTS
    {
    POINTSTOPLOT = SURFACENODES
    }
  SURFACES
    {
    SURFACESTOPLOT = KPLANES
    }
  VOLUMEMODE
    {
    VOLUMEOBJECTSTOPLOT
      {
      SHOWISOSURFACES = NO
      SHOWSLICES = NO
      SHOWSTREAMTRACES = NO
      }
    }
$!FIELD  [2]
  MESH
    {
    COLOR = GREEN
    }
  CONTOUR
    {
    CONTOURTYPE = FLOOD
    COLOR = GREEN
    }
  VECTOR
    {
    COLOR = GREEN
    }
  SCATTER
    {
    COLOR = GREEN
    }
  SHADE
    {
    COLOR = WHITE
    }
  BOUNDARY
    {
    SHOW = YES
    COLOR = GREEN
    }
  POINTS
    {
    POINTSTOPLOT = SURFACENODES
    }
  SURFACES
    {
    SURFACESTOPLOT = KPLANES
    }
  VOLUMEMODE
    {
    VOLUMEOBJECTSTOPLOT
      {
      SHOWISOSURFACES = NO
      SHOWSLICES = NO
      SHOWSTREAMTRACES = NO
      }
    }
$!FIELD  [3]
  MESH
    {
    COLOR = BLUE
    }
  CONTOUR
    {
    CONTOURTYPE = FLOOD
    COLOR = BLUE
    }
  VECTOR
    {
    COLOR = BLUE
    }
  SCATTER
    {
    COLOR = BLUE
    }
  SHADE
    {
    COLOR = WHITE
    }
  BOUNDARY
    {
    SHOW = YES
    COLOR = BLUE
    }
  POINTS
    {
    POINTSTOPLOT = SURFACENODES
    }
  SURFACES
    {
    SURFACESTOPLOT = KPLANES
    }
  VOLUMEMODE
    {
    VOLUMEOBJECTSTOPLOT
      {
      SHOWISOSURFACES = NO
      SHOWSLICES = NO
      SHOWSTREAMTRACES = NO
      }
    }
$!FIELD  [4]
  MESH
    {
    COLOR = CYAN
    }
  CONTOUR
    {
    CONTOURTYPE = FLOOD
    COLOR = CYAN
    }
  VECTOR
    {
    COLOR = CYAN
    }
  SCATTER
    {
    COLOR = CYAN
    }
  SHADE
    {
    COLOR = WHITE
    }
  BOUNDARY
    {
    SHOW = YES
    COLOR = CYAN
    }
  POINTS
    {
    POINTSTOPLOT = SURFACENODES
    }
  SURFACES
    {
    SURFACESTOPLOT = KPLANES
    }
  VOLUMEMODE
    {
    VOLUMEOBJECTSTOPLOT
      {
      SHOWISOSURFACES = NO
      SHOWSLICES = NO
      SHOWSTREAMTRACES = NO
      }
    }
$!FIELD  [5]
  MESH
    {
    COLOR = YELLOW
    }
  CONTOUR
    {
    COLOR = YELLOW
    }
  VECTOR
    {
    COLOR = YELLOW
    }
  SCATTER
    {
    COLOR = YELLOW
    }
  SHADE
    {
    COLOR = WHITE
    }
  BOUNDARY
    {
    SHOW = YES
    COLOR = YELLOW
    }
  POINTS
    {
    POINTSTOPLOT = SURFACENODES
    }
  SURFACES
    {
    SURFACESTOPLOT = KPLANES
    }
  VOLUMEMODE
    {
    VOLUMEOBJECTSTOPLOT
      {
      SHOWISOSURFACES = NO
      SHOWSLICES = NO
      SHOWSTREAMTRACES = NO
      }
    }
$!FIELD  [6]
  MESH
    {
    COLOR = PURPLE
    }
  CONTOUR
    {
    COLOR = PURPLE
    }
  VECTOR
    {
    COLOR = PURPLE
    }
  SCATTER
    {
    COLOR = PURPLE
    }
  SHADE
    {
    COLOR = WHITE
    }
  BOUNDARY
    {
    SHOW = YES
    COLOR = PURPLE
    }
  POINTS
    {
    POINTSTOPLOT = SURFACENODES
    }
  SURFACES
    {
    SURFACESTOPLOT = KPLANES
    }
  VOLUMEMODE
    {
    VOLUMEOBJECTSTOPLOT
      {
      SHOWISOSURFACES = NO
      SHOWSLICES = NO
      SHOWSTREAMTRACES = NO
      }
    }
$!TWODAXIS 
  XDETAIL
    {
    VARNUM = 1
    }
  YDETAIL
    {
    VARNUM = 3
    }
$!VIEW FIT
$!TWODAXIS 
  AXISMODE = INDEPENDENT
  DEPXTOYRATIO = 1
  VIEWPORTPOSITION
    {
    X1 = 2
    Y1 = 2
    X2 = 98
    Y2 = 98
    }
  VIEWPORTTOPSNAPTARGET = 98
$!TWODAXIS 
  XDETAIL
    {
    RANGEMIN = 0
    RANGEMAX = 0.53000000000000003
    AUTOGRID = NO
    GRSPACING = 0.05
    TICKS
      {
      SHOWONGRIDBORDERMAX = YES
      TICKDIRECTION = OUT
      LINETHICKNESS = 2
      MINORLENGTH = 0
      MINORLINETHICKNESS = 0.02
      }
    TICKLABEL
      {
      SHOWONAXISLINE = NO
      }
    TITLE
      {
      SHOWONAXISLINE = NO
      }
    }
$!TWODAXIS 
  YDETAIL
    {
    RANGEMIN = -0.28999999999999998
    RANGEMAX = 0
    AUTOGRID = NO
    GRSPACING = 0.05
    TICKS
      {
      SHOWONGRIDBORDERMAX = YES
      TICKDIRECTION = OUT
      LINETHICKNESS = 2
      MINORLENGTH = 0
      MINORLINETHICKNESS = 0.02
      }
    TICKLABEL
      {
      SHOWONAXISLINE = NO
      }
    TITLE
      {
      SHOWONAXISLINE = NO
      }
    }
$!GLOBALISOSURFACE 
  ISOVALUE1 = 0.274145120697
  ISOVALUE2 = 0.548889553756
  ISOVALUE3 = 0.823633986816
  MARCHINGCUBEALGORITHM = CLASSICPLUS
$!GLOBALSLICE 
  BOUNDARY
    {
    SHOW = NO
    }
$!FIELDLAYERS 
  SHOWMESH = NO
  SHOWCONTOUR = YES
  SHOWBOUNDARY = NO
### Frame Number 6 ###
$!CREATENEWFRAME 
$!FRAMELAYOUT 
  SHOWBORDER = NO
  ISTRANSPARENT = YES
  HEADERCOLOR = RED
  XYPOS
    {
    X = 7.5093
    Y = 4.6018
    }
  WIDTH = 1.59
  HEIGHT = 0.87
$!PLOTTYPE  = CARTESIAN2D
$!FRAMENAME  = 'Frame 002' 
$!ACTIVEFIELDZONES  =  [3]
$!GLOBALRGB 
  RANGEMIN = 0
  RANGEMAX = 1
$!GLOBALCONTOUR  1
  VAR = 6
  DEFNUMLEVELS = 10
  LEGEND
    {
    XYPOS
      {
      X = 95
      }
    LABELINCREMENT = 290.1
    }
  COLORCUTOFF
    {
    RANGEMIN = 0.276243008071
    RANGEMAX = 0.828812929291
    }
  COLORMAPFILTER
    {
    COLORMAPDISTRIBUTION = CONTINUOUS
    CONTINUOUSCOLOR
      {
      CMIN = 0
      CMAX = 1
      }
    }
$!CONTOURLEVELS NEW
  CONTOURGROUP = 1
  RAWDATA
10
0.1
0.2
0.3
0.4
0.5
0.6
0.7
0.8
0.9
1
$!GLOBALCONTOUR  2
  LEGEND
    {
    XYPOS
      {
      X = 95
      }
    }
  COLORMAPFILTER
    {
    CONTINUOUSCOLOR
      {
      CMIN = 0
      CMAX = 1
      }
    }
$!GLOBALCONTOUR  3
  LEGEND
    {
    XYPOS
      {
      X = 95
      }
    }
  COLORMAPFILTER
    {
    CONTINUOUSCOLOR
      {
      CMIN = 0
      CMAX = 1
      }
    }
$!GLOBALCONTOUR  4
  LEGEND
    {
    XYPOS
      {
      X = 95
      }
    }
  COLORMAPFILTER
    {
    CONTINUOUSCOLOR
      {
      CMIN = 0
      CMAX = 1
      }
    }
$!GLOBALSCATTER 
  LEGEND
    {
    XYPOS
      {
      X = 95
      }
    }
  REFSCATSYMBOL
    {
    COLOR = RED
    FILLCOLOR = RED
    }
$!FIELD  [1]
  MESH
    {
    COLOR = RED
    }
  CONTOUR
    {
    CONTOURTYPE = FLOOD
    COLOR = BLACK
    USELIGHTINGEFFECT = YES
    }
  VECTOR
    {
    COLOR = RED
    }
  SCATTER
    {
    COLOR = RED
    }
  SHADE
    {
    COLOR = WHITE
    }
  BOUNDARY
    {
    SHOW = YES
    COLOR = RED
    }
  POINTS
    {
    POINTSTOPLOT = SURFACENODES
    }
  SURFACES
    {
    SURFACESTOPLOT = KPLANES
    }
  VOLUMEMODE
    {
    VOLUMEOBJECTSTOPLOT
      {
      SHOWISOSURFACES = NO
      SHOWSLICES = NO
      SHOWSTREAMTRACES = NO
      }
    }
$!FIELD  [2]
  MESH
    {
    COLOR = GREEN
    }
  CONTOUR
    {
    CONTOURTYPE = FLOOD
    COLOR = GREEN
    }
  VECTOR
    {
    COLOR = GREEN
    }
  SCATTER
    {
    COLOR = GREEN
    }
  SHADE
    {
    COLOR = WHITE
    }
  BOUNDARY
    {
    SHOW = YES
    COLOR = GREEN
    }
  POINTS
    {
    POINTSTOPLOT = SURFACENODES
    }
  SURFACES
    {
    SURFACESTOPLOT = KPLANES
    }
  VOLUMEMODE
    {
    VOLUMEOBJECTSTOPLOT
      {
      SHOWISOSURFACES = NO
      SHOWSLICES = NO
      SHOWSTREAMTRACES = NO
      }
    }
$!FIELD  [3]
  MESH
    {
    COLOR = BLUE
    }
  CONTOUR
    {
    CONTOURTYPE = FLOOD
    COLOR = BLUE
    }
  VECTOR
    {
    COLOR = BLUE
    }
  SCATTER
    {
    COLOR = BLUE
    }
  SHADE
    {
    COLOR = WHITE
    }
  BOUNDARY
    {
    SHOW = YES
    COLOR = BLUE
    }
  POINTS
    {
    POINTSTOPLOT = SURFACENODES
    }
  SURFACES
    {
    SURFACESTOPLOT = KPLANES
    }
  VOLUMEMODE
    {
    VOLUMEOBJECTSTOPLOT
      {
      SHOWISOSURFACES = NO
      SHOWSLICES = NO
      SHOWSTREAMTRACES = NO
      }
    }
$!FIELD  [4]
  MESH
    {
    COLOR = CYAN
    }
  CONTOUR
    {
    COLOR = CYAN
    }
  VECTOR
    {
    COLOR = CYAN
    }
  SCATTER
    {
    COLOR = CYAN
    }
  SHADE
    {
    COLOR = WHITE
    }
  BOUNDARY
    {
    SHOW = YES
    COLOR = CYAN
    }
  POINTS
    {
    POINTSTOPLOT = SURFACENODES
    }
  SURFACES
    {
    SURFACESTOPLOT = KPLANES
    }
  VOLUMEMODE
    {
    VOLUMEOBJECTSTOPLOT
      {
      SHOWISOSURFACES = NO
      SHOWSLICES = NO
      SHOWSTREAMTRACES = NO
      }
    }
$!FIELD  [5]
  MESH
    {
    COLOR = YELLOW
    }
  CONTOUR
    {
    COLOR = YELLOW
    }
  VECTOR
    {
    COLOR = YELLOW
    }
  SCATTER
    {
    COLOR = YELLOW
    }
  SHADE
    {
    COLOR = WHITE
    }
  BOUNDARY
    {
    SHOW = YES
    COLOR = YELLOW
    }
  POINTS
    {
    POINTSTOPLOT = SURFACENODES
    }
  SURFACES
    {
    SURFACESTOPLOT = KPLANES
    }
  VOLUMEMODE
    {
    VOLUMEOBJECTSTOPLOT
      {
      SHOWISOSURFACES = NO
      SHOWSLICES = NO
      SHOWSTREAMTRACES = NO
      }
    }
$!FIELD  [6]
  MESH
    {
    COLOR = PURPLE
    }
  CONTOUR
    {
    COLOR = PURPLE
    }
  VECTOR
    {
    COLOR = PURPLE
    }
  SCATTER
    {
    COLOR = PURPLE
    }
  SHADE
    {
    COLOR = WHITE
    }
  BOUNDARY
    {
    SHOW = YES
    COLOR = PURPLE
    }
  POINTS
    {
    POINTSTOPLOT = SURFACENODES
    }
  SURFACES
    {
    SURFACESTOPLOT = KPLANES
    }
  VOLUMEMODE
    {
    VOLUMEOBJECTSTOPLOT
      {
      SHOWISOSURFACES = NO
      SHOWSLICES = NO
      SHOWSTREAMTRACES = NO
      }
    }
$!TWODAXIS 
  XDETAIL
    {
    VARNUM = 1
    }
  YDETAIL
    {
    VARNUM = 3
    }
$!VIEW FIT
$!TWODAXIS 
  AXISMODE = INDEPENDENT
  DEPXTOYRATIO = 1
  VIEWPORTPOSITION
    {
    X1 = 2
    Y1 = 2
    X2 = 98
    Y2 = 98
    }
  VIEWPORTTOPSNAPTARGET = 98
$!TWODAXIS 
  XDETAIL
    {
    RANGEMIN = 0
    RANGEMAX = 0.53000000000000003
    AUTOGRID = NO
    GRSPACING = 0.05
    TICKS
      {
      SHOWONGRIDBORDERMAX = YES
      TICKDIRECTION = OUT
      LINETHICKNESS = 2
      MINORLENGTH = 0
      MINORLINETHICKNESS = 0.02
      }
    TICKLABEL
      {
      SHOWONAXISLINE = NO
      }
    TITLE
      {
      SHOWONAXISLINE = NO
      }
    }
$!TWODAXIS 
  YDETAIL
    {
    RANGEMIN = -0.28999999999999998
    RANGEMAX = 0
    AUTOGRID = NO
    GRSPACING = 0.05
    TICKS
      {
      SHOWONGRIDBORDERMAX = YES
      TICKDIRECTION = OUT
      LINETHICKNESS = 2
      MINORLENGTH = 0
      MINORLINETHICKNESS = 0.02
      }
    TICKLABEL
      {
      SHOWONAXISLINE = NO
      }
    TITLE
      {
      SHOWONAXISLINE = NO
      }
    }
$!GLOBALISOSURFACE 
  ISOVALUE1 = 0.276243008071
  ISOVALUE2 = 0.552527968681
  ISOVALUE3 = 0.828812929291
  MARCHINGCUBEALGORITHM = CLASSICPLUS
$!GLOBALSLICE 
  BOUNDARY
    {
    SHOW = NO
    }
$!FIELDLAYERS 
  SHOWMESH = NO
  SHOWCONTOUR = YES
  SHOWBOUNDARY = NO
### Frame Number 7 ###
$!CREATENEWFRAME 
$!FRAMELAYOUT 
  SHOWBORDER = NO
  ISTRANSPARENT = YES
  HEADERCOLOR = RED
  XYPOS
    {
    X = 7.5093
    Y = 2.7567
    }
  WIDTH = 1.59
  HEIGHT = 0.87
$!PLOTTYPE  = CARTESIAN2D
$!FRAMENAME  = 'Frame 003' 
$!ACTIVEFIELDZONES  =  [1,5]
$!GLOBALRGB 
  RANGEMIN = 0
  RANGEMAX = 1
$!GLOBALCONTOUR  1
  VAR = 6
  DEFNUMLEVELS = 9
  LEGEND
    {
    XYPOS
      {
      X = 95
      }
    LABELINCREMENT = 290.1
    }
  COLORCUTOFF
    {
    RANGEMIN = 0.124991273886
    RANGEMAX = 0.375393144292
    }
  COLORMAPFILTER
    {
    COLORMAPDISTRIBUTION = CONTINUOUS
    CONTINUOUSCOLOR
      {
      CMIN = 0
      CMAX = 1
      }
    }
$!CONTOURLEVELS NEW
  CONTOURGROUP = 1
  RAWDATA
9
0.0637825127691
0.138748261333
0.213714009896
0.288679758459
0.363645507023
0.438611255586
0.51357700415
0.588542752713
0.663508501276
$!GLOBALCONTOUR  2
  LEGEND
    {
    XYPOS
      {
      X = 95
      }
    }
  COLORMAPFILTER
    {
    CONTINUOUSCOLOR
      {
      CMIN = 0
      CMAX = 1
      }
    }
$!GLOBALCONTOUR  3
  LEGEND
    {
    XYPOS
      {
      X = 95
      }
    }
  COLORMAPFILTER
    {
    CONTINUOUSCOLOR
      {
      CMIN = 0
      CMAX = 1
      }
    }
$!GLOBALCONTOUR  4
  LEGEND
    {
    XYPOS
      {
      X = 95
      }
    }
  COLORMAPFILTER
    {
    CONTINUOUSCOLOR
      {
      CMIN = 0
      CMAX = 1
      }
    }
$!GLOBALSCATTER 
  LEGEND
    {
    XYPOS
      {
      X = 95
      }
    }
  REFSCATSYMBOL
    {
    COLOR = RED
    FILLCOLOR = RED
    }
$!FIELD  [1]
  MESH
    {
    COLOR = RED
    }
  CONTOUR
    {
    CONTOURTYPE = FLOOD
    COLOR = BLACK
    USELIGHTINGEFFECT = YES
    }
  VECTOR
    {
    COLOR = RED
    }
  SCATTER
    {
    COLOR = RED
    }
  SHADE
    {
    COLOR = WHITE
    }
  BOUNDARY
    {
    SHOW = YES
    COLOR = RED
    }
  POINTS
    {
    POINTSTOPLOT = SURFACENODES
    }
  SURFACES
    {
    SURFACESTOPLOT = KPLANES
    }
  VOLUMEMODE
    {
    VOLUMEOBJECTSTOPLOT
      {
      SHOWISOSURFACES = NO
      SHOWSLICES = NO
      SHOWSTREAMTRACES = NO
      }
    }
$!FIELD  [2]
  MESH
    {
    COLOR = GREEN
    }
  CONTOUR
    {
    COLOR = GREEN
    }
  VECTOR
    {
    COLOR = GREEN
    }
  SCATTER
    {
    COLOR = GREEN
    }
  SHADE
    {
    COLOR = WHITE
    }
  BOUNDARY
    {
    SHOW = YES
    COLOR = GREEN
    }
  POINTS
    {
    POINTSTOPLOT = SURFACENODES
    }
  SURFACES
    {
    SURFACESTOPLOT = KPLANES
    }
  VOLUMEMODE
    {
    VOLUMEOBJECTSTOPLOT
      {
      SHOWISOSURFACES = NO
      SHOWSLICES = NO
      SHOWSTREAMTRACES = NO
      }
    }
$!FIELD  [3]
  MESH
    {
    COLOR = BLUE
    }
  CONTOUR
    {
    COLOR = BLUE
    }
  VECTOR
    {
    COLOR = BLUE
    }
  SCATTER
    {
    COLOR = BLUE
    }
  SHADE
    {
    COLOR = WHITE
    }
  BOUNDARY
    {
    SHOW = YES
    COLOR = BLUE
    }
  POINTS
    {
    POINTSTOPLOT = SURFACENODES
    }
  SURFACES
    {
    SURFACESTOPLOT = KPLANES
    }
  VOLUMEMODE
    {
    VOLUMEOBJECTSTOPLOT
      {
      SHOWISOSURFACES = NO
      SHOWSLICES = NO
      SHOWSTREAMTRACES = NO
      }
    }
$!FIELD  [4]
  MESH
    {
    COLOR = CYAN
    }
  CONTOUR
    {
    CONTOURTYPE = FLOOD
    COLOR = CYAN
    }
  VECTOR
    {
    COLOR = CYAN
    }
  SCATTER
    {
    COLOR = CYAN
    }
  SHADE
    {
    COLOR = WHITE
    }
  BOUNDARY
    {
    SHOW = YES
    COLOR = CYAN
    }
  POINTS
    {
    POINTSTOPLOT = SURFACENODES
    }
  SURFACES
    {
    SURFACESTOPLOT = KPLANES
    }
  VOLUMEMODE
    {
    VOLUMEOBJECTSTOPLOT
      {
      SHOWISOSURFACES = NO
      SHOWSLICES = NO
      SHOWSTREAMTRACES = NO
      }
    }
$!FIELD  [5]
  MESH
    {
    COLOR = YELLOW
    }
  CONTOUR